439 
balls rotated 
H     -1.41614 -1.13948  1.23451 
H     -1.37594 -1.09881  0.99722 
H     -1.09641 -1.18982  1.25890 
H     -0.83557 -1.48164  1.41739 
H     -0.98937 -0.87868  1.40376 
H     -1.22357 -0.66881  1.35637 
H     -1.52550 -0.70581  1.11695 
H     -1.25211 -0.54775  1.65106 
H     -1.46711 -0.84263  1.67659 
H     -0.98108 -0.36989  1.62141 
H     -0.76997 -0.60758  1.72296 
H     -1.14096 -0.16711  1.38740 
H     -0.81545 -0.32289  1.19657 
H     -1.31795 -0.00303  1.54307 
H     -1.45283 -0.16095  1.68298 
H     -1.35158  0.27620  1.42390 
H     -1.08110  0.48425  1.49322 
H     -1.12627  0.70974  1.36081 
H     -0.74066  0.43775  1.37185 
H     -0.74185  0.17990  1.43394 
H     -0.42621  0.48254  1.42061 
H     -0.49012  0.57775  1.63117 
H     -0.14988  0.58940  1.19859 
H     -0.30616  0.43888  0.97321 
H      0.18062  0.45512  1.11383 
H      0.38838  0.57952  1.32129 
H      0.45199  0.55563  0.88937 
H      0.30281  0.46416  0.68603 
H      0.76439  0.39016  0.78265 
H      0.88395  0.54184  1.15690 
H      1.03333  0.48548  0.55102 
H      0.93930  0.41939  0.25892 
H      1.30842  0.32878  0.39291 
H      1.44120  0.40454  0.70288 
H      1.53231  0.43339  0.12410 
H      1.68516  0.31676 -0.20234 
H      1.98468  0.30892 -0.16202 
H      1.75539  0.48555 -0.51210 
H      1.50036  0.47914 -0.57560 
H      2.02132  0.45850 -0.68909 
H      1.88623  0.39427 -0.97398 
H      2.16037  0.56944 -0.39918 
H      1.90863  0.71970 -0.28589 
H      1.95525  0.91643 -0.62300 
H      1.85225  0.83734  0.02366 
H      2.18271  0.57649  0.23389 
H      1.54382  0.78903  0.22480 
H      1.34764  0.75695 -0.05065 
H      1.25900  0.92994  0.41600 
H      1.42475  0.80196  0.60451 
H      0.92974  0.83592  0.55430 
H      0.81939  0.88641  0.31487 
H      0.64848  0.99928  0.72177 
H      0.67791  0.99612  1.21470 
H      0.33261  0.88568  0.86401 
H     -0.00315  1.01834  0.94330 
H      0.23179  1.13944  1.27294 
H     -0.32490  0.89388  1.08355 
H     -0.64090  0.73351  0.97823 
H     -0.84449  0.97963  1.19794 
H     -0.88135  0.45608  1.02510 
H     -1.19709  0.32333  0.85938 
H     -1.44030  0.45516  0.94823 
H     -1.28790  0.00811  0.80238 
H     -1.14624 -0.10747  0.90688 
H     -1.59901  0.01190  0.78652 
H     -1.69652  0.00324  1.02859 
H     -1.55070  0.23787  0.53544 
H     -1.76985  0.40667  0.70046 
H     -1.26911  0.21778  0.38551 
H     -1.09982  0.46247  0.53012 
H     -1.28619  0.85596  0.52013 
H     -0.82134  0.69350  0.45334 
H     -0.65575  0.38630  0.48875 
H     -0.58966  0.92084  0.63681 
H     -0.79458  1.05361  0.67019 
H     -0.28494  1.08754  0.51665 
H     -0.20685  0.75940  0.63101 
H      0.04755  1.21414  0.60527 
H      0.09126  1.64733  0.65109 
H      0.34312  1.28300  0.41916 
H      0.20635  0.88324  0.35949 
H      0.70428  1.29883  0.48121 
H      0.65996  1.48934  0.68815 
H      1.01963  1.40904  0.40012 
H      1.17596  1.31435  0.17886 
H      1.30059  1.36946  0.62871 
H      1.18870  1.21063  0.76957 
H      1.55510  1.42196  0.39276 
H      1.57395  1.18091  0.39491 
H      1.38774  1.61223  0.19502 
H      1.40478  1.52856 -0.11831 
H      1.42496  1.69637 -0.25032 
H      1.23786  1.33420 -0.32554 
H      0.99986  1.12921 -0.21051 
H      1.38045  1.10536 -0.56837 
H      1.48164  1.03382 -0.36730 
H      1.07575  1.04023 -0.61627 
H      1.14162  0.78652 -0.60893 
H      0.76398  0.99833 -0.69415 
H      0.82550  1.02094 -0.92386 
H      0.49839  0.98131 -0.49197 
H      0.58151  1.24405 -0.14349 
H      0.31658  0.77384 -0.65179 
H      0.27913  1.00325 -0.77011 
H      0.53429  0.53007 -0.63020 
H      0.71639  0.62195 -0.76743 
H      0.45744  0.50079 -0.29311 
H      0.75389  0.62738 -0.23724 
H      0.16012  0.43457 -0.22660 
H      0.00065  0.59634 -0.35480 
H      0.15347  0.11261 -0.20688 
H      0.14519  0.05572 -0.45442 
H      0.36751  0.09868  0.02516 
H      0.60082  0.07860 -0.09881 
H      0.23703  0.28675  0.24395 
H      0.41514  0.56908  0.17647 
H     -0.11154  0.34441  0.14515 
H     -0.09619 -0.03166  0.04402 
H      0.02018 -0.13051  0.36926 
H     -0.33755  0.05892 -0.41147 
H     -0.32330 -0.09589  0.48229 
H     -0.21750  0.06517  0.62762 
H     -0.53343 -0.34667  0.40381 
H     -0.33577 -0.45076  0.06277 
H     -0.68421 -0.36627  0.68978 
H     -0.45787 -0.33743  0.84050 
H     -0.89038 -0.11685  0.58731 
H     -0.67424  0.08543  0.87248 
H     -1.08368 -0.28312  0.44804 
H     -0.91591 -0.35822  0.23959 
H     -1.40695 -0.33400  0.30426 
H     -1.85040 -0.09049  0.33946 
H     -1.58819 -0.60193  0.39383 
H     -1.17502 -0.83819  0.28936 
H     -1.83087 -0.78642  0.32653 
H     -1.80423 -0.72195  0.09245 
H     -2.03716 -0.97516  0.51033 
H     -2.31341 -0.88199  0.44898 
H     -1.98429 -1.23988  0.30226 
H     -2.09751 -1.13470  0.02019 
H     -1.63373 -1.18905  0.33660 
H     -1.60417 -1.07154 -0.03188 
H     -1.48906 -1.16752  0.61556 
H     -1.71037 -0.85327  0.74909 
H     -1.30989 -1.44119  0.63339 
H     -1.39729 -1.81975  0.47263 
H     -1.12152 -1.32570  0.37915 
H     -1.36563 -1.55891  0.17907 
H     -0.96621 -1.14210  0.59447 
H     -1.01372 -0.85712  0.63938 
H     -0.63771 -1.15985  0.64917 
H     -0.32822 -1.29472  0.56729 
H     -0.53694 -0.89056  0.76697 
H     -0.50130 -0.78155  0.35678 
H     -0.70973 -0.89962  1.03518 
H     -1.00108 -0.59650  0.89895 
H     -0.64778 -1.20162  1.11752 
H     -0.83041 -1.31682  0.95839 
H     -0.33136 -1.11202  1.19459 
H     -0.24734 -1.14092  1.01572 
H     -0.43501 -0.97229  1.43703 
H     -0.32693 -0.65751  1.23684 
H     -0.19725 -0.79519  1.61854 
H     -0.33328 -0.84174  1.80636 
H      0.07862 -0.91589  1.52016 
H      0.05773 -1.29711  1.69857 
H      0.05904 -0.94832  1.20766 
H      0.24223 -0.87129  0.89463 
H     -0.07053 -0.74138  0.69527 
H      0.41151 -0.95746  0.60753 
H      0.66023 -1.01901  0.68625 
H      0.51070 -0.73341  0.33467 
H      0.17919 -0.55078  0.21604 
H      0.58972 -0.82217 -0.00159 
H      0.86339 -1.07280  0.18643 
H      0.76656 -0.66455 -0.28903 
H      0.27993 -0.43025 -0.24631 
H      0.75474 -0.63631 -0.64620 
H      0.96584 -0.79869 -0.68972 
H      0.82665 -0.35539 -0.85399 
H      0.62786 -0.19061 -0.68868 
H      0.76515 -0.31887 -1.20577 
H      0.88026 -0.55843 -1.20930 
H      0.88006 -0.09071 -1.42275 
H      0.80248  0.17191 -1.09513 
H      0.81836 -0.03047 -1.72886 
H      0.54262 -0.17801 -2.04100 
H      1.11722  0.01987 -1.87588 
H      1.15024  0.06600 -2.15016 
H      1.24566  0.00123 -1.57923 
H      1.24766  0.34622 -1.53042 
H      1.26369 -0.02131 -1.26420 
H      1.29257 -0.15784 -0.91929 
H      1.24303 -0.40439 -1.02605 
H      1.10587 -0.26066 -0.63532 
H      1.01568  0.22104 -0.62728 
H      1.19085 -0.35477 -0.30204 
H      1.34892 -0.74255 -0.25805 
H      0.97481 -0.48158 -0.03820 
H      0.83238 -0.28631 -0.10388 
H      0.95031 -0.45319  0.33034 
H      1.07428 -0.81820  0.61196 
H      0.69024 -0.52227  0.57314 
H      0.61139 -0.32821  0.49573 
H      0.53304 -0.42614  0.88658 
H      0.81435 -0.69112  1.06748 
H      0.20665 -0.50451  1.01581 
H      0.09018 -0.37729  0.81748 
H      0.10036 -0.35822  1.32931 
H      0.43877 -0.56290  1.41528 
H      0.04618 -0.33658  1.66024 
H     -0.38222 -0.27960  1.59040 
H      0.10980 -0.04277  1.87409 
H      0.48105 -0.02181  1.69345 
H     -0.10613 -0.06941  2.05798 
H     -0.34775  0.15090  1.90845 
H     -0.48962  0.16821  2.20100 
H     -0.14477  0.14021  1.66525 
H     -0.06791  0.39725  1.67234 
H     -0.11033  0.12732  1.32510 
H     -0.24502 -0.07959  1.15501 
H      0.18071 -0.01854  1.17341 
H      0.33263  0.12256  1.34905 
H      0.41506  0.08094  0.89787 
H      0.31682 -0.00800  0.62851 
H      0.71824 -0.08882  0.82470 
H      0.77843  0.11158  1.29567 
H      0.97235  0.01307  0.57686 
H      0.72488  0.02788  0.41226 
H      1.16629 -0.12825  0.30307 
H      1.29753 -0.26831  0.62371 
H      1.34230  0.02536  0.01961 
H      1.12588  0.14789 -0.16798 
H      1.46298 -0.09199 -0.30369 
H      1.88499 -0.22494 -0.26884 
H      1.60729  0.07512 -0.58002 
H      1.66555 -0.03798 -0.92519 
H      1.78292 -0.27355 -0.80311 
H      1.75483  0.04333 -1.25682 
H      1.88174 -0.24430 -1.21940 
H      1.70828  0.33280 -1.31619 
H      1.36289  0.28617 -1.05978 
H      1.65919  0.56505 -1.55975 
H      1.44488  0.43368 -1.89073 
H      1.77434  0.82113 -1.71932 
H      2.09828  1.05102 -1.69361 
H      1.50647  1.01742 -1.80699 
H      1.54395  1.19729 -2.01160 
H      1.28110  0.89394 -1.68046 
H      0.97483  0.88610 -1.52128 
H      0.79072  0.79507 -1.78090 
H      1.10460  0.87258 -1.23609 
H      1.03534  0.59643 -1.19524 
H      1.38640  1.03160 -1.22016 
H      1.59547  0.79557 -1.12325 
H      1.23793  1.26462 -1.40957 
H      0.96340  1.35401 -1.30945 
H      1.13387  1.36636 -0.95782 
H      0.68192  1.25666 -1.51581 
H      1.02195  1.24234 -1.81413 
H      0.46751  1.22901 -1.29920 
H      0.53059  0.89150 -1.28608 
H      0.16869  1.27309 -1.19886 
H     -0.05344  1.38972 -1.54007 
H     -0.03527  1.41916 -0.93213 
H      0.06647  1.50927 -0.54051 
H     -0.18800  1.11596 -0.92109 
H     -0.27780  1.21423 -1.17812 
H     -0.46755  0.85893 -0.91305 
H     -0.21172  0.59446 -0.71083 
H     -0.58150  0.55634 -0.97797 
H     -0.53719  0.63289 -1.31657 
H     -0.79271  0.29257 -1.01220 
H     -1.00983  0.42711 -0.90683 
H     -0.78527 -0.03874 -0.85773 
H     -0.44565  0.13769 -1.00443 
H     -0.70068 -0.39598 -0.86268 
H     -1.01741 -0.37243 -0.97466 
H     -0.65797 -0.65231 -0.61370 
H     -0.48572 -0.53067 -0.46386 
H     -0.53206 -0.97711 -0.65379 
H     -0.75466 -0.86255 -1.05081 
H     -0.63368 -1.25206 -0.44996 
H     -0.61559 -1.07089 -0.19434 
H     -0.44902 -1.53474 -0.30558 
H     -0.42977 -1.66853 -0.52076 
H     -0.35864 -1.82373 -0.18746 
H     -0.51029 -1.91475 -0.05416 
H     -0.07141 -1.94267  0.03806 
H      0.18274 -1.84224 -0.07806 
H     -0.01377 -2.23259  0.17036 
H     -0.13619 -2.37368  0.06207 
H      0.29422 -2.25130  0.22884 
H      0.38814 -2.28494  0.03737 
H      0.27610 -1.95190  0.39516 
H      0.38570 -1.84155  0.27508 
H      0.00385 -1.90616  0.52765 
H     -0.08082 -2.02533  0.75956 
H     -0.12287 -1.70257  0.30105 
H     -0.07284 -1.44620  0.05364 
H     -0.31818 -1.30605  0.12848 
H     -0.13574 -1.32206 -0.27640 
H      0.22392 -1.61742 -0.39489 
H     -0.05631 -1.05478 -0.51848 
H     -0.19077 -0.93684 -0.38676 
H     -0.19374 -0.88989 -0.81877 
H      0.00780 -1.15587 -0.88203 
H     -0.09458 -0.59076 -1.00807 
H     -0.15260 -0.44599 -0.68631 
H     -0.16069 -0.27946 -1.20350 
H     -0.02513 -0.55354 -1.55133 
H     -0.01499  0.02080 -1.22117 
H     -0.03928  0.09129 -0.93351 
H     -0.13112  0.35059 -1.33351 
H     -0.47029  0.17230 -1.49180 
H      0.07947  0.61077 -1.44714 
H      0.25499  0.50077 -1.09698 
H      0.05819  0.92652 -1.51541 
H     -0.28066  0.93621 -1.55685 
H      0.18826  1.11493 -1.77341 
H      0.40664  0.95605 -1.83030 
H      0.26432  1.43228 -1.88710 
H      0.61705  1.55059 -1.76238 
H      0.22905  1.32489 -2.20977 
H      0.43847  1.16705 -2.24371 
H     -0.02425  1.09882 -2.17544 
H      0.09795  0.86376 -2.07888 
H      0.32355  0.83347 -2.17436 
H      0.18213  0.52833 -1.93979 
H     -0.07245  0.48982 -1.86994 
H      0.29891  0.39610 -1.62701 
H      0.63742  0.39581 -1.60976 
H      0.38538  0.08231 -1.54450 
H      0.14361 -0.04162 -1.76470 
H      0.32286 -0.12770 -1.23621 
H      0.41086  0.02553 -1.13308 
H      0.42197 -0.42705 -1.13392 
H      0.37199 -0.54008 -1.44833 
H      0.26478 -0.63583 -0.88332 
H      0.24901 -0.25455 -0.74066 
H      0.42133 -0.83530 -0.62782 
H      0.52934 -1.24614 -0.64021 
H      0.26298 -1.02355 -0.35698 
H      0.04613 -0.73899 -0.18152 
H      0.33758 -1.09869  0.00140 
H      0.59119 -1.36636 -0.18504 
H      0.17145 -1.26237  0.28397 
H      0.03564 -0.95619  0.23542 
H      0.26339 -1.30539  0.63617 
H      0.43393 -1.49345  0.54233 
H      0.22370 -1.42580  0.93533 
H      0.05637 -1.54600  0.87160 
H      0.35400 -1.37155  1.25138 
H      0.45328 -1.07871  1.25194 
H      0.12796 -1.53682  1.36547 
H     -0.18191 -1.56905  1.37111 
H     -0.20901 -1.75174  1.65573 
H     -0.41880 -1.67108  1.15459 
H     -0.64300 -1.80103  0.98026 
H     -0.64024 -1.65191  0.82116 
H     -0.82015 -2.08400  0.95659 
H     -0.99025 -2.13265  1.15041 
H     -0.87682 -1.97906  0.66620 
H     -1.14330 -2.19135  0.67453 
H     -0.80728 -1.92607  0.36067 
H     -0.45610 -1.96077  0.36931 
H     -0.87299 -1.74316  0.10362 
H     -0.77987 -1.56314  0.20019 
H     -1.04787 -1.67808 -0.15184 
H     -1.27624 -1.94363 -0.10934 
H     -1.08570 -1.55312 -0.43626 
H     -0.85562 -1.71702 -0.62795 
H     -1.01062 -1.19701 -0.46704 
H     -1.04488 -1.16803 -0.13415 
H     -1.06949 -0.83383 -0.42994 
H     -1.28251 -0.74550 -0.74406 
H     -0.94919 -0.49843 -0.44385 
H     -0.82344 -0.56266 -0.12794 
H     -1.08661 -0.17394 -0.42928 
H     -1.27476 -0.14367 -0.59807 
H     -0.92555  0.12734 -0.54537 
H     -0.71736  0.02053 -0.47333 
H     -0.89968  0.47268 -0.41202 
H     -1.24904  0.36769 -0.51005 
H     -0.72998  0.78834 -0.48253 
H     -0.54616  0.60349 -0.39148 
H     -0.61828  1.10394 -0.31438 
H     -0.85155  1.21049 -0.36741 
H     -0.41594  1.37292 -0.40244 
H     -0.19024  1.12394 -0.46795 
H     -0.24357  1.62323 -0.19777 
H     -0.46556  1.66332 -0.09520 
H     -0.18977  1.94813 -0.04082 
H      0.15907  1.84434 -0.28535 
H     -0.02446  2.14149  0.20211 
H     -0.05788  2.10380  0.50395 
H     -0.02289  2.48244  0.22478 
H     -0.26521  2.44130  0.21846 
H      0.15764  2.46585  0.52047 
H     -0.10095  2.63409  0.61250 
H      0.38377  2.28591  0.36131 
H      0.45398  2.02725  0.56610 
H      0.73515  2.29181  0.29327 
H      0.78671  2.46448  0.39541 
H      0.76477  2.00879  0.27161 
H      0.80498  1.89648  0.74712 
H      0.79072  1.71837  0.13822 
H      0.90218  1.64772 -0.16421 
H      0.46127  1.59346  0.03171 
H      0.31058  1.83961  0.16626 
H      0.15362  1.38679  0.12194 
H      0.14856  1.09796 -0.13594 
H     -0.18612  1.37731  0.06760 
H     -0.26954  1.57558  0.22900 
H     -0.41635  1.10915  0.17158 
H     -0.29413  0.86164  0.00074 
H     -0.69825  0.94263  0.01651 
H     -0.97459  1.07988  0.09902 
H     -0.87169  0.63069  0.09576 
H     -0.55580  0.39649 -0.03434 
H     -1.05824  0.36305 -0.08647 
H     -1.33242  0.66799  0.04864 
H     -1.15261  0.02832  0.03509 
H     -0.89724 -0.02538 -0.01444 
H     -1.26616 -0.27703 -0.11715 
H     -1.48463 -0.15043 -0.15221 
H     -1.43024 -0.58635 -0.13052 
H     -1.28963 -0.70211 -0.00339 
H     -1.44657 -0.85496 -0.38210 
H     -1.58491 -0.69148 -0.47286 
H     -1.56397 -1.16230 -0.58175 
H     -1.79269 -1.25832 -0.38550 
H     -1.59915 -1.44780 -0.22712 
H     -2.09553 -1.39952 -0.35600 
H     -2.16180 -1.43447 -0.59781 
H     -2.39250 -1.38413 -0.22101 
H     -2.54792 -1.23813  0.08265 
H     -2.61018 -1.62363 -0.11674 
