439 
balls rotated 
H     -0.27891 -1.79597 -1.23473 
H     -0.26379 -1.74085 -0.99745 
H     -0.48237 -1.54423 -1.25908 
H     -0.86550 -1.46420 -1.41754 
H     -0.26642 -1.29596 -1.40392 
H      0.03243 -1.39387 -1.35656 
H      0.15134 -1.67389 -1.11718 
H      0.15153 -1.35802 -1.65124 
H      0.00363 -1.69165 -1.67682 
H      0.17006 -1.03438 -1.62155 
H     -0.14134 -0.97036 -1.72308 
H      0.42563 -1.07150 -1.38756 
H      0.12798 -0.86749 -1.19669 
H      0.65621 -1.14273 -1.54325 
H      0.58687 -1.33848 -1.68318 
H      0.91486 -1.03227 -1.42408 
H      0.95982 -0.69400 -1.49336 
H      1.17769 -0.62040 -1.36095 
H      0.74934 -0.42242 -1.37194 
H      0.52662 -0.55235 -1.43404 
H      0.63092 -0.12769 -1.42065 
H      0.74532 -0.13541 -1.63122 
H      0.58534  0.16502 -1.19860 
H      0.53311 -0.04561 -0.97324 
H      0.30381  0.38411 -1.11379 
H      0.30766  0.62626 -1.32122 
H      0.25520  0.66936 -0.88929 
H      0.25057  0.49440 -0.68598 
H     -0.04429  0.85717 -0.78253 
H      0.02728  1.03659 -1.15677 
H     -0.09618  1.13771 -0.55086 
H     -0.10639  1.02319 -0.25878 
H     -0.36942  1.29759 -0.39272 
H     -0.37020  1.45050 -0.70267 
H     -0.39074  1.54376 -0.12387 
H     -0.56815  1.61778  0.20258 
H     -0.72469  1.87326  0.16230 
H     -0.45706  1.76294  0.51235 
H     -0.33511  1.53886  0.57583 
H     -0.61343  1.97971  0.68938 
H     -0.60151  1.83056  0.97425 
H     -0.58688  2.15564  0.39950 
H     -0.33090  2.01275  0.28618 
H     -0.18381  2.15144  0.62330 
H     -0.20084  2.02279 -0.02338 
H     -0.59198  2.17860 -0.23357 
H     -0.08849  1.73154 -0.22456 
H     -0.01818  1.54556  0.05085 
H      0.17593  1.55534 -0.41580 
H     -0.01779  1.63493 -0.60430 
H      0.25910  1.22320 -0.55415 
H      0.35802  1.15284 -0.31473 
H      0.54119  1.06130 -0.72165 
H      0.52372  1.08527 -1.21458 
H      0.60072  0.73097 -0.86394 
H      0.88347  0.50651 -0.94328 
H      0.87088  0.77057 -1.27288 
H      0.93654  0.16566 -1.08358 
H      0.95563 -0.18821 -0.97830 
H      1.27056 -0.24145 -1.19804 
H      0.83557 -0.53515 -1.02521 
H      0.87846 -0.87499 -0.85954 
H      1.11422 -1.01970 -0.94842 
H      0.65087 -1.11123 -0.80256 
H      0.47994 -1.04631 -0.90704 
H      0.80969 -1.37877 -0.78674 
H      0.85093 -1.46753 -1.02883 
H      0.98125 -1.22400 -0.53565 
H      1.23699 -1.32938 -0.70070 
H      0.82308 -0.99019 -0.38568 
H      0.95035 -0.72122 -0.53026 
H      1.38431 -0.68591 -0.52028 
H      1.01121 -0.36456 -0.45343 
H      0.66238 -0.37472 -0.48883 
H      1.09227 -0.05022 -0.63687 
H      1.30970 -0.16132 -0.67027 
H      1.08430  0.29701 -0.51666 
H      0.76107  0.20060 -0.63101 
H      1.02771  0.64827 -0.60523 
H      1.38102  0.90270 -0.65103 
H      0.93959  0.93865 -0.41908 
H      0.66176  0.62033 -0.35944 
H      0.77274  1.25936 -0.48108 
H      0.95988  1.31625 -0.68802 
H      0.71052  1.58756 -0.39994 
H      0.55037  1.67558 -0.17866 
H      0.53577  1.81113 -0.62849 
H      0.45416  1.63483 -0.76937 
H      0.45401  2.05776 -0.39250 
H      0.23582  1.95357 -0.39466 
H      0.70248  2.00792 -0.19478 
H      0.62151  1.98081  0.11854 
H      0.75676  2.08215  0.25057 
H      0.53664  1.73904  0.32575 
H      0.47809  1.43045  0.21068 
H      0.26718  1.74809  0.56859 
H      0.15463  1.79999  0.36753 
H      0.36310  1.45164  0.61645 
H      0.11045  1.38184  0.60911 
H      0.48269  1.16067  0.69428 
H      0.47152  1.22522  0.92401 
H      0.60073  0.92217  0.49207 
H      0.78670  1.12556  0.14361 
H      0.51194  0.66097  0.65186 
H      0.72935  0.74321  0.77017 
H      0.19199  0.72765  0.63029 
H      0.18053  0.93127  0.76754 
H      0.20503  0.64650  0.29318 
H      0.16645  0.96654  0.23736 
H      0.29633  0.35590  0.22664 
H      0.51615  0.29866  0.35481 
H      0.02081  0.18918  0.20691 
H     -0.02431  0.15354  0.45444 
H     -0.09827  0.36763 -0.02511 
H     -0.23230  0.55963  0.09889 
H      0.12983  0.34867 -0.24391 
H      0.28529  0.64407 -0.17639 
H      0.35403  0.07561 -0.14515 
H      0.02067 -0.09913 -0.04403 
H     -0.12313 -0.04772 -0.36926 
H      0.21980 -0.26294  0.41142 
H      0.07856 -0.32787 -0.48233 
H      0.16515 -0.15571 -0.62765 
H     -0.03357 -0.63525 -0.40390 
H     -0.22252 -0.51614 -0.06283 
H      0.02483 -0.77558 -0.68988 
H     -0.06336 -0.56512 -0.84057 
H      0.34392 -0.82946 -0.58744 
H      0.41103 -0.54111 -0.87257 
H      0.29656 -1.08002 -0.44820 
H      0.14766 -0.97228 -0.23973 
H      0.41412 -1.38544 -0.30446 
H      0.84671 -1.64774 -0.33972 
H      0.27268 -1.67634 -0.39407 
H     -0.13848 -1.43664 -0.28955 
H      0.23424 -1.97876 -0.32681 
H      0.27676 -1.92349 -0.09272 
H      0.17390 -2.25175 -0.51064 
H      0.39270 -2.44443 -0.44932 
H     -0.08178 -2.33834 -0.30257 
H      0.06593 -2.38385 -0.02052 
H     -0.21302 -2.00932 -0.33686 
H     -0.12601 -1.92501  0.03163 
H     -0.26672 -1.87323 -0.61580 
H      0.11608 -1.90776 -0.74935 
H     -0.59330 -1.85487 -0.63361 
H     -0.87745 -2.11985 -0.47287 
H     -0.58745 -1.63403 -0.37935 
H     -0.66737 -1.96206 -0.17930 
H     -0.50610 -1.40770 -0.59464 
H     -0.23554 -1.30636 -0.63954 
H     -0.68571 -1.13207 -0.64929 
H     -0.95724 -0.93147 -0.56737 
H     -0.50287 -0.91015 -0.76707 
H     -0.42626 -0.82484 -0.35687 
H     -0.42434 -1.06428 -1.03530 
H     -0.01616 -1.16509 -0.89911 
H     -0.71686 -1.16160 -1.11764 
H     -0.72532 -1.37739 -0.95854 
H     -0.79747 -0.84277 -1.19466 
H     -0.86449 -0.78448 -1.01578 
H     -0.62464 -0.86264 -1.43712 
H     -0.40605 -0.61169 -1.23690 
H     -0.59013 -0.56817 -1.61859 
H     -0.56246 -0.70922 -1.80642 
H     -0.83259 -0.38960 -1.52018 
H     -1.15231 -0.59826 -1.69860 
H     -0.85087 -0.42281 -1.20768 
H     -0.87573 -0.22569 -0.89462 
H     -0.60685 -0.43164 -0.69530 
H     -1.03498 -0.12221 -0.60750 
H     -1.21263  0.06244 -0.68619 
H     -0.89051  0.07567 -0.33462 
H     -0.56660 -0.12014 -0.21603 
H     -1.00687  0.09969  0.00165 
H     -1.36077  0.21142 -0.18634 
H     -0.95876  0.33160  0.28912 
H     -0.51256  0.02730  0.24634 
H     -0.92838  0.33544  0.64629 
H     -1.17454  0.43708  0.68984 
H     -0.72103  0.53814  0.85410 
H     -0.47895  0.44837  0.68876 
H     -0.65863  0.50308  1.20587 
H     -0.92366  0.48301  1.20941 
H     -0.51848  0.71664  1.42287 
H     -0.25226  0.78079  1.09525 
H     -0.43544  0.69328  1.72897 
H     -0.42536  0.38067  2.04107 
H     -0.54125  0.97726  1.87604 
H     -0.51780  1.02888  2.15032 
H     -0.62163  1.07921  1.57940 
H     -0.32384  1.25343  1.53060 
H     -0.65017  1.08360  1.26437 
H     -0.78287  1.04041  0.91947 
H     -0.97162  0.87423  1.02621 
H     -0.77859  0.82734  0.63547 
H     -0.31632  0.99007  0.62743 
H     -0.90260  0.85393  0.30220 
H     -1.31747  0.79697  0.25821 
H     -0.90442  0.60347  0.03832 
H     -0.66410  0.57774  0.10398 
H     -0.86761  0.59649 -0.33022 
H     -1.24572  0.52142 -0.61184 
H     -0.79743  0.33676 -0.57306 
H     -0.58993  0.36548 -0.49565 
H     -0.63559  0.24871 -0.88652 
H     -1.00573  0.35989 -1.06739 
H     -0.54029 -0.07312 -1.01580 
H     -0.37188 -0.11042 -0.81747 
H     -0.36048 -0.09199 -1.32931 
H     -0.70693  0.09876 -1.41523 
H     -0.31466 -0.12805 -1.66025 
H     -0.05113 -0.47059 -1.59046 
H     -0.09202  0.07395 -1.87407 
H     -0.25947  0.40594 -1.69338 
H     -0.00715 -0.12634 -2.05800 
H      0.30445 -0.22547 -1.90849 
H      0.39037 -0.33965 -2.20106 
H      0.19373 -0.05506 -1.66527 
H      0.37791  0.14001 -1.67234 
H      0.16536 -0.03172 -1.32511 
H      0.05352 -0.25184 -1.15505 
H     -0.10645  0.14739 -1.17339 
H     -0.06021  0.34954 -1.34900 
H     -0.13745  0.40005 -0.89781 
H     -0.16535  0.27047 -0.62846 
H     -0.43604  0.57774 -0.82461 
H     -0.29260  0.73012 -1.29556 
H     -0.47483  0.84872 -0.57672 
H     -0.33828  0.64178 -0.41215 
H     -0.69416  0.94600 -0.30291 
H     -0.88110  0.98968 -0.62354 
H     -0.64911  1.17519 -0.01942 
H     -0.43479  1.04899  0.16814 
H     -0.81107  1.22099  0.30389 
H     -1.13719  1.52001  0.26909 
H     -0.73847  1.42949  0.58025 
H     -0.86554  1.42335  0.92542 
H     -1.12824  1.40724  0.80335 
H     -0.83973  1.54127  1.25706 
H     -1.15229  1.50740  1.21965 
H     -0.56576  1.64567  1.31644 
H     -0.43348  1.32327  1.05998 
H     -0.34007  1.71923  1.56000 
H     -0.34668  1.46791  1.89094 
H     -0.17585  1.94697  1.71959 
H     -0.13871  2.34245  1.69393 
H      0.12807  1.81310  1.80722 
H      0.26512  1.93546  2.01184 
H      0.13380  1.55620  1.68066 
H      0.28012  1.28706  1.52144 
H      0.29334  1.08206  1.78103 
H      0.20352  1.39272  1.23627 
H     -0.00101  1.19469  1.19540 
H      0.20035  1.71628  1.22038 
H     -0.10859  1.77936  1.12349 
H      0.47640  1.70418  1.40977 
H      0.69107  1.51111  1.30962 
H      0.61651  1.66497  0.95802 
H      0.74748  1.21864  1.51594 
H      0.56510  1.50592  1.81430 
H      0.83072  1.01916  1.29929 
H      0.50688  0.90505  1.28618 
H      1.01829  0.78241  1.19892 
H      1.23036  0.64830  1.54010 
H      1.24675  0.67883  0.93216 
H      1.27391  0.81205  0.54056 
H      1.06052  0.39498  0.92110 
H      1.19053  0.36630  1.17812 
H      0.97767  0.02437  0.91300 
H      0.62072  0.11374  0.71081 
H      0.77259 -0.22560  0.97791 
H      0.81674 -0.14901  1.31651 
H      0.64974 -0.54040  1.01210 
H      0.87481 -0.66116  0.90670 
H      0.35909 -0.69957  0.85762 
H      0.34209 -0.31725  1.00438 
H      0.00740 -0.80492  0.86257 
H      0.18615 -1.06746  0.97451 
H     -0.23596 -0.89605  0.61359 
H     -0.21673 -0.68603  0.46378 
H     -0.58020 -0.94938  0.65369 
H     -0.36968 -1.08495  1.05068 
H     -0.76753 -1.17482  0.44984 
H     -0.61968 -1.06855  0.19422 
H     -1.10467 -1.15621  0.30548 
H     -1.23016 -1.20645  0.52066 
H     -1.40014 -1.22239  0.18736 
H     -1.40317 -1.39922  0.05404 
H     -1.64676 -1.03307 -0.03812 
H     -1.68684 -0.76277  0.07804 
H     -1.92667 -1.12808 -0.17042 
H     -1.98766 -1.30466 -0.06215 
H     -2.09686 -0.87068 -0.22886 
H     -2.17293 -0.80619 -0.03738 
H     -1.82851 -0.73667 -0.39517 
H     -1.78772 -0.58660 -0.27508 
H     -1.65279 -0.94958 -0.52770 
H     -1.71368 -1.08245 -0.75962 
H     -1.41311 -0.95756 -0.30111 
H     -1.21608 -0.78610 -0.05369 
H     -0.97204 -0.92850 -0.12856 
H     -1.07711 -0.77856  0.27635 
H     -1.51271 -0.61476  0.39488 
H     -0.88532 -0.57617  0.51844 
H     -0.71597 -0.63365  0.38671 
H     -0.67379 -0.61280  0.81872 
H     -1.00491 -0.57123  0.88200 
H     -0.46430 -0.37740  1.00804 
H     -0.30993 -0.35523  0.68628 
H     -0.16164 -0.27904  1.20347 
H     -0.46677 -0.29871  1.55131 
H      0.02557 -0.00274  1.22117 
H      0.09874  0.01150  0.93351 
H      0.36924  0.06154  1.33350 
H      0.38441 -0.32136  1.49174 
H      0.48929  0.37399  1.44717 
H      0.30626  0.47105  1.09703 
H      0.77340  0.51340  1.51544 
H      0.95120  0.22478  1.55684 
H      0.87156  0.72021  1.77346 
H      0.62478  0.82990  1.83039 
H      1.10838  0.94473  1.88717 
H      1.03449  1.30938  1.76251 
H      1.03302  0.86044  2.20983 
H      0.79162  0.96290  2.24380 
H      0.96386  0.52806  2.17546 
H      0.69919  0.51638  2.07891 
H      0.56017  0.69661  2.17442 
H      0.36660  0.42162  1.93983 
H      0.46052  0.18189  1.86994 
H      0.19369  0.45668  1.62706 
H      0.02419  0.74971  1.60986 
H     -0.12131  0.37470  1.54455 
H     -0.10776  0.10333  1.76472 
H     -0.27195  0.21561  1.23625 
H     -0.18324  0.36844  1.13314 
H     -0.58076  0.15180  1.13396 
H     -0.65365  0.05196  1.44837 
H     -0.68300 -0.08868  0.88334 
H     -0.34491  0.08829  0.74069 
H     -0.93403 -0.05279  0.62786 
H     -1.34384 -0.16465  0.64025 
H     -1.01791 -0.28402  0.35699 
H     -0.66306 -0.32953  0.18151 
H     -1.12030 -0.25692 -0.00138 
H     -1.47890 -0.17113  0.18509 
H     -1.17901 -0.48259 -0.28398 
H     -0.84595 -0.44714 -0.23544 
H     -1.26225 -0.42443 -0.63617 
H     -1.51038 -0.37077 -0.54231 
H     -1.34671 -0.51896 -0.93533 
H     -1.36715 -0.72399 -0.87163 
H     -1.36488 -0.37895 -1.25136 
H     -1.16089 -0.14656 -1.25190 
H     -1.39501 -0.65732 -1.36549 
H     -1.26800 -0.94180 -1.37118 
H     -1.41269 -1.05656 -1.65580 
H     -1.23792 -1.19800 -1.15469 
H     -1.23837 -1.45716 -0.98039 
H     -1.11060 -1.38024 -0.82130 
H     -1.39488 -1.75206 -0.95676 
H     -1.35198 -1.92367 -1.15061 
H     -1.27564 -1.74871 -0.66637 
H     -1.32627 -2.08563 -0.67475 
H     -1.26450 -1.66203 -0.36083 
H     -1.47012 -1.37524 -0.36943 
H     -1.07323 -1.62753 -0.10378 
H     -0.96388 -1.45687 -0.20034 
H     -0.92943 -1.74648  0.15165 
H     -1.04523 -2.07702  0.10911 
H     -0.80227 -1.71681  0.43607 
H     -1.05925 -1.59952  0.62779 
H     -0.53140 -1.47376  0.46687 
H     -0.48919 -1.48889  0.13397 
H     -0.18744 -1.34317  0.42977 
H     -0.00442 -1.48354  0.74386 
H      0.04289 -1.07130  0.44371 
H     -0.07562 -0.99446  0.12781 
H      0.39262 -1.02808  0.42912 
H      0.51292 -1.17592  0.59789 
H      0.57304 -0.73798  0.54525 
H      0.37644 -0.61107  0.47323 
H      0.85918 -0.54291  0.41191 
H      0.94292 -0.89798  0.50989 
H      1.04772 -0.23814  0.48244 
H      0.79572 -0.17134  0.39142 
H      1.26520  0.01641  0.31432 
H      1.47410 -0.13236  0.36733 
H      1.39700  0.32611  0.40242 
H      1.06853  0.39709  0.46795 
H      1.52759  0.60056  0.19778 
H      1.67329  0.42835  0.09518 
H      1.78206  0.80960  0.04085 
H      1.51779  1.05980  0.28542 
H      1.86687  1.04947 -0.20206 
H      1.85093  1.00173 -0.50390 
H      2.16137  1.22130 -0.22472 
H      2.24689  0.99086 -0.21843 
H      2.05673  1.36939 -0.52038 
H      2.33171  1.22955 -0.61244 
H      1.78784  1.47525 -0.36120 
H      1.52872  1.40676 -0.56598 
H      1.61729  1.78250 -0.29311 
H      1.74105  1.91350 -0.39523 
H      1.35737  1.66666 -0.27145 
H      1.23998  1.64539 -0.74696 
H      1.09288  1.54392 -0.13806 
H      0.97598  1.60509  0.16438 
H      1.14941  1.19614 -0.03160 
H      1.43792  1.18871 -0.16617 
H      1.12423  0.82638 -0.12188 
H      0.87663  0.67756  0.13599 
H      1.28587  0.52739 -0.06759 
H      1.49928  0.55430 -0.22899 
H      1.16873  0.19396 -0.17161 
H      0.89327  0.17604 -0.00076 
H      1.16545 -0.13346 -0.01658 
H      1.42248 -0.30416 -0.09912 
H      0.98200 -0.43961 -0.09587 
H      0.62125 -0.28313  0.03428 
H      0.84348 -0.73500  0.08633 
H      1.24465 -0.81998 -0.04881 
H      0.60077 -0.98406 -0.03525 
H      0.42659 -0.78975  0.01432 
H      0.39309 -1.23508  0.11696 
H      0.61196 -1.36100  0.15199 
H      0.20724 -1.53183  0.13030 
H      0.03668 -1.46791  0.00320 
H     -0.01722 -1.68029  0.38188 
H      0.19353 -1.71839  0.47262 
H     -0.22469 -1.93566  0.58150 
H     -0.19351 -2.18172  0.38522 
H     -0.45438 -2.10880  0.22686 
H     -0.16439 -2.51458  0.35568 
H     -0.16152 -2.58948  0.59747 
H     -0.00260 -2.76406  0.22064 
H      0.20152 -2.82563 -0.08304 
H     -0.10120 -3.07231  0.11633 
