439 
balls rotated 
H     -2.05155 -0.43351 -0.65659 
H     -1.83819 -0.55116 -0.64212 
H     -1.99186 -0.33080 -0.35452 
H     -2.19145 -0.31566  0.01729 
H     -1.88341  0.00615 -0.41738 
H     -1.80495  0.02252 -0.72514 
H     -1.74949 -0.27368 -0.96813 
H     -1.96335  0.28701 -0.81036 
H     -2.22513  0.03442 -0.84911 
H     -1.74757  0.48234 -0.66456 
H     -1.89013  0.47574 -0.36289 
H     -1.50966  0.39688 -0.90444 
H     -1.34919  0.28986 -0.54466 
H     -1.58950  0.54088 -1.13974 
H     -1.83011  0.48275 -1.17759 
H     -1.35039  0.62838 -1.30849 
H     -1.19085  0.90916 -1.17827 
H     -0.97690  0.94891 -1.33013 
H     -1.01368  0.92450 -0.86019 
H     -1.20963  0.79964 -0.73229 
H     -0.91875  1.10277 -0.61026 
H     -1.04144  1.28120 -0.71319 
H     -0.59937  1.12567 -0.42440 
H     -0.57139  0.81991 -0.48450 
H     -0.50360  1.10531 -0.07104 
H     -0.51618  1.40138  0.04671 
H     -0.18775  1.12064  0.11370 
H     -0.13956  0.87028  0.03023 
H     -0.09979  1.05879  0.46698 
H     -0.25003  1.45125  0.49471 
H      0.21757  1.06507  0.65221 
H      0.36489  0.79215  0.60379 
H      0.33632  0.96062  0.96878 
H      0.19429  1.26612  1.04591 
H      0.67162  0.93127  1.11035 
H      0.89778  0.69457  1.30101 
H      0.96349  0.82777  1.56432 
H      1.24928  0.62203  1.27740 
H      1.20742  0.48066  1.05974 
H      1.45412  0.58500  1.52122 
H      1.58342  0.30283  1.43632 
H      1.34949  0.90204  1.58620 
H      1.26812  0.98103  1.29306 
H      1.64825  0.89940  1.23504 
H      1.08738  1.24293  1.18544 
H      0.89058  1.33848  1.60207 
H      0.80671  1.23183  0.94250 
H      0.92717  0.95398  0.78862 
H      0.65096  1.34464  0.62540 
H      0.49217  1.44998  0.83295 
H      0.38353  1.25433  0.38728 
H      0.55380  1.08563  0.26645 
H      0.25962  1.36704  0.06203 
H     -0.09869  1.70576  0.08914 
H     -0.01761  1.27174 -0.15471 
H     -0.11201  1.28544 -0.51181 
H     -0.20820  1.67123 -0.36887 
H     -0.39601  1.17964 -0.72822 
H     -0.51641  0.88854 -0.92171 
H     -0.60519  1.11833 -1.22106 
H     -0.79245  0.65201 -0.99123 
H     -0.85186  0.33838 -1.19831 
H     -0.92288  0.39232 -1.47484 
H     -1.02254  0.06362 -1.11935 
H     -1.11977  0.11178 -0.93886 
H     -1.11265 -0.06014 -1.39067 
H     -1.33020  0.06003 -1.47077 
H     -0.77896 -0.06475 -1.46184 
H     -0.87712  0.07289 -1.73601 
H     -0.58496 -0.07339 -1.20795 
H     -0.49400  0.24376 -1.18366 
H     -0.32092  0.42109 -1.54181 
H     -0.20989  0.44454 -1.05801 
H     -0.35879  0.33203 -0.76100 
H     -0.13698  0.79971 -0.97102 
H     -0.15343  0.83136 -1.21487 
H      0.15087  0.93981 -0.79048 
H     -0.09812  0.83414 -0.55878 
H      0.26962  1.20411 -0.56583 
H      0.50121  1.52983 -0.74456 
H      0.54673  1.23372 -0.34430 
H      0.31368  0.88568 -0.26288 
H      0.63064  1.41960 -0.03944 
H      0.57241  1.66422 -0.17305 
H      0.86028  1.55344  0.17856 
H      1.02215  1.40253  0.36127 
H      0.76148  1.78530  0.44169 
H      0.52733  1.73575  0.42420 
H      1.05241  1.75577  0.63583 
H      0.91744  1.60907  0.77268 
H      1.25361  1.68375  0.39574 
H      1.44368  1.42658  0.45231 
H      1.64577  1.45374  0.38587 
H      1.42921  1.10080  0.40490 
H      1.14531  0.95741  0.30130 
H      1.52479  0.84401  0.64279 
H      1.36777  0.97010  0.76621 
H      1.42069  0.65683  0.41148 
H      1.29027  0.52292  0.59537 
H      1.34997  0.46193  0.16242 
H      1.55437  0.34563  0.20437 
H      1.10100  0.48758 -0.05907 
H      1.02207  0.92073 -0.11842 
H      1.03871  0.17956 -0.11280 
H      1.24704  0.23413 -0.25994 
H      0.95426  0.11800  0.19762 
H      1.17041  0.15296  0.30938 
H      0.66107  0.29615  0.14574 
H      0.79209  0.52515  0.33919 
H      0.47379  0.18757 -0.07864 
H      0.60943  0.14666 -0.29763 
H      0.27035 -0.00894  0.07659 
H      0.41858 -0.21425  0.09784 
H      0.16146  0.21689  0.26894 
H      0.32001  0.20770  0.48102 
H      0.06417  0.43585  0.06193 
H      0.33751  0.63858  0.07501 
H      0.05438  0.27735 -0.26878 
H     -0.08324 -0.02667 -0.06747 
H     -0.34329  0.17058  0.08276 
H      0.22698 -0.36281 -0.32182 
H     -0.52216  0.14087 -0.23200 
H     -0.50144  0.38109 -0.22089 
H     -0.67946 -0.15111 -0.28860 
H     -0.42019 -0.37286 -0.06541 
H     -0.95379 -0.02840 -0.40935 
H     -0.97335  0.17510 -0.22775 
H     -0.80210 -0.01303 -0.71263 
H     -0.82450  0.38828 -0.62655 
H     -0.85962 -0.28505 -0.79690 
H     -0.69209 -0.41053 -0.61408 
H     -0.89042 -0.53411 -1.05144 
H     -0.92386 -0.51857 -1.55723 
H     -1.17288 -0.71396 -1.07443 
H     -1.09389 -0.78241 -0.59849 
H     -1.31097 -0.96789 -1.19236 
H     -1.09074 -1.07312 -1.20154 
H     -1.62595 -1.04302 -1.27662 
H     -1.61881 -1.12675 -1.56245 
H     -1.60702 -1.33299 -1.09850 
H     -1.37434 -1.49609 -1.24916 
H     -1.48579 -1.14705 -0.82032 
H     -1.13396 -1.30699 -0.85350 
H     -1.63222 -0.89279 -0.70577 
H     -1.62341 -0.68341 -1.05454 
H     -1.74409 -0.99043 -0.41377 
H     -1.87322 -1.37412 -0.30020 
H     -1.42521 -1.01623 -0.30840 
H     -1.49332 -1.39090 -0.40322 
H     -1.42687 -0.69629 -0.26568 
H     -1.31101 -0.50047 -0.44931 
H     -1.36788 -0.54907  0.02770 
H     -1.28162 -0.57568  0.36315 
H     -1.26567 -0.25948 -0.01967 
H     -0.88575 -0.45054 -0.04334 
H     -1.52806 -0.15004 -0.16476 
H     -1.34867 -0.15435 -0.56864 
H     -1.74351 -0.26631  0.03990 
H     -1.75312 -0.51478 -0.06068 
H     -1.64300 -0.03952  0.26914 
H     -1.49870 -0.14659  0.35633 
H     -1.77688  0.17413  0.10952 
H     -1.40955  0.28293  0.04572 
H     -1.72960  0.49790  0.22689 
H     -1.94166  0.54307  0.13239 
H     -1.63412  0.45688  0.52615 
H     -1.99459  0.32313  0.69868 
H     -1.42722  0.21964  0.52538 
H     -1.08866  0.12782  0.64549 
H     -0.96988 -0.03816  0.30966 
H     -0.86859 -0.05686  0.83516 
H     -0.87954  0.04861  1.08134 
H     -0.50280 -0.05837  0.80901 
H     -0.41973 -0.14337  0.43059 
H     -0.27789 -0.31114  0.92179 
H     -0.47128 -0.24497  1.28413 
H      0.08622 -0.33632  0.99611 
H      0.02741 -0.33773  0.45753 
H      0.36406 -0.56152  0.97172 
H      0.37296 -0.61673  1.23573 
H      0.70533 -0.49303  0.89353 
H      0.61144 -0.35023  0.63899 
H      0.96734 -0.72776  0.82197 
H      0.86967 -0.84154  1.04144 
H      1.29924 -0.68340  0.80740 
H      1.18198 -0.32398  0.60892 
H      1.54099 -0.87238  0.72381 
H      1.59520 -1.27864  0.55876 
H      1.77942 -0.82731  0.95746 
H      2.02103 -0.96888  0.96296 
H      1.59114 -0.59310  1.07803 
H      1.75543 -0.33765  0.90727 
H      1.34999 -0.39012  1.10494 
H      1.02422 -0.23648  1.19825 
H      0.94413 -0.48500  1.27861 
H      0.69114 -0.18201  1.08799 
H      0.93411  0.09990  0.76904 
H      0.41736  0.01199  1.20867 
H      0.21286 -0.14943  1.53945 
H      0.07552  0.02665  1.08500 
H      0.18982  0.05547  0.86401 
H     -0.19012  0.28241  1.04961 
H     -0.56942  0.28198  1.33951 
H     -0.49760  0.30379  0.85895 
H     -0.35401  0.34760  0.69362 
H     -0.72744  0.51699  0.67476 
H     -0.92129  0.57200  1.05090 
H     -0.97810  0.43176  0.43130 
H     -0.79596  0.33765  0.26681 
H     -1.16188  0.69619  0.26614 
H     -1.23113  0.74770  0.66155 
H     -1.41340  0.91142  0.20842 
H     -1.47182  0.74220 -0.19108 
H     -1.38079  1.26724  0.11663 
H     -1.11018  1.29779  0.42766 
H     -1.60514  1.29293 -0.05703 
H     -1.44720  1.24489 -0.37645 
H     -1.70205  1.39908 -0.50795 
H     -1.20475  1.15070 -0.19534 
H     -1.03536  1.34944 -0.25729 
H     -0.94791  0.92760 -0.15910 
H     -0.98646  0.63058 -0.17231 
H     -0.82231  0.84035  0.16587 
H     -0.82024  1.10514  0.22690 
H     -0.48148  0.80708  0.31906 
H     -0.36571  0.53310  0.27842 
H     -0.42403  0.76149  0.66649 
H     -0.63777  1.22797  0.61846 
H     -0.09577  0.75565  0.83560 
H     -0.04767  0.56310  0.61387 
H      0.09071  0.55355  1.07419 
H     -0.18482  0.72671  1.25791 
H      0.44926  0.52814  1.14979 
H      0.58725  0.40108  0.90109 
H      0.66191  0.28112  1.31296 
H      0.70018  0.37566  1.74490 
H      1.01239  0.25740  1.35435 
H      1.22285 -0.02471  1.46133 
H      1.03490 -0.05104  1.68077 
H      1.54630 -0.16110  1.49796 
H      1.39429 -0.27404  1.75169 
H      1.74258 -0.03181  1.31292 
H      1.40943 -0.01858  1.03713 
H      2.04173 -0.06354  1.15426 
H      2.13987 -0.44918  1.03431 
H      2.34723  0.03729  1.12593 
H      2.56972  0.32281  1.29153 
H      2.43649  0.00545  0.79579 
H      2.70531 -0.00177  0.73830 
H      2.19550 -0.07309  0.66237 
H      1.97018 -0.08542  0.40106 
H      2.04877 -0.38612  0.28711 
H      1.79383  0.14492  0.52023 
H      1.58028 -0.03122  0.59832 
H      1.96842  0.36262  0.68477 
H      1.82959  0.35322  0.98385 
H      2.19453  0.33071  0.43967 
H      2.08006  0.35323  0.15722 
H      1.88294  0.65979  0.29872 
H      2.08282  0.04792 -0.03788 
H      2.41000 -0.03458  0.26372 
H      1.83408  0.09541 -0.20973 
H      1.64988 -0.08962  0.01366 
H      1.68507  0.07989 -0.49055 
H      1.93190 -0.15588 -0.74126 
H      1.50324  0.27660 -0.74019 
H      1.29846  0.63444 -0.69710 
H      1.26825  0.03210 -0.72087 
H      1.48616 -0.11000 -0.84778 
H      1.01979 -0.23181 -0.83445 
H      0.80187 -0.17167 -0.48064 
H      0.85459 -0.51234 -0.78184 
H      1.16540 -0.67318 -0.78177 
H      0.65651 -0.78349 -0.83288 
H      0.58351 -0.70705 -1.08818 
H      0.35223 -0.89060 -0.66077 
H      0.67712 -0.74903 -0.45487 
H      0.17721 -1.09242 -0.40889 
H      0.16809 -1.26986 -0.69497 
H     -0.14206 -1.07493 -0.24372 
H     -0.12529 -0.83238 -0.15536 
H     -0.25834 -1.26403  0.02771 
H      0.02861 -1.53864 -0.22238 
H     -0.60314 -1.34236  0.07720 
H     -0.68208 -1.04800  0.00230 
H     -0.81245 -1.35909  0.37847 
H     -0.72361 -1.58203  0.46202 
H     -1.03743 -1.43247  0.60124 
H     -1.23998 -1.45821  0.51543 
H     -1.17784 -1.25142  0.90948 
H     -0.94831 -1.17005  1.07936 
H     -1.42487 -1.32808  1.10436 
H     -1.46711 -1.53683  1.06888 
H     -1.37612 -1.18656  1.38046 
H     -1.22189 -1.30144  1.47859 
H     -1.33230 -0.88931  1.21508 
H     -1.14244 -0.85791  1.25481 
H     -1.49535 -0.87237  0.95644 
H     -1.76508 -0.82535  0.94272 
H     -1.25138 -0.94003  0.74489 
H     -0.90223 -0.92198  0.66001 
H     -0.95872 -0.87285  0.37747 
H     -0.60607 -1.08629  0.54344 
H     -0.56881 -1.22206  1.00258 
H     -0.24471 -1.04672  0.47857 
H     -0.31925 -0.93265  0.30317 
H      0.02801 -1.19259  0.27708 
H     -0.01166 -1.33123  0.58461 
H      0.37520 -1.08988  0.21338 
H      0.20055 -0.80297  0.09078 
H      0.67870 -1.04485  0.00046 
H      0.82373 -1.40363  0.25487 
H      0.91456 -0.80928 -0.02348 
H      0.73350 -0.58046 -0.07974 
H      1.15029 -0.71534 -0.28895 
H      1.05112 -1.06201 -0.49356 
H      1.45595 -0.54567 -0.23667 
H      1.19072 -0.31696 -0.02964 
H      1.68252 -0.39603 -0.41299 
H      1.60556 -0.54342 -0.71129 
H      2.02695 -0.39907 -0.39457 
H      2.05025 -0.45827 -0.12601 
H      2.32078 -0.24263 -0.48738 
H      2.41468  0.04802 -0.24105 
H      2.48654 -0.54076 -0.46426 
H      2.49038 -0.58725 -0.20398 
H      2.24528 -0.75740 -0.57059 
H      2.07821 -0.79868 -0.34722 
H      2.20710 -0.79825 -0.13671 
H      1.80865 -0.89023 -0.10659 
H      1.64924 -0.96286 -0.30781 
H      1.53866 -0.72266  0.06068 
H      1.63894 -0.58554  0.35399 
H      1.32445 -0.83729  0.29246 
H      1.33539 -1.15422  0.14503 
H      0.95274 -0.78940  0.34335 
H      0.99433 -0.58908  0.34296 
H      0.73642 -0.87681  0.57887 
H      0.88786 -1.17850  0.59207 
H      0.37662 -0.90191  0.54714 
H      0.48625 -0.56692  0.34286 
H      0.12354 -0.80117  0.78248 
H     -0.06917 -1.03376  1.08143 
H     -0.23980 -0.79995  0.73948 
H     -0.27786 -0.57995  0.40942 
H     -0.52471 -0.58079  0.84169 
H     -0.45640 -0.78360  1.19514 
H     -0.88513 -0.55878  0.77968 
H     -0.71708 -0.44467  0.50898 
H     -1.14104 -0.31666  0.88084 
H     -1.12321 -0.43713  1.12255 
H     -1.44641 -0.20873  0.90670 
H     -1.52469 -0.39091  0.82188 
H     -1.60626  0.08607  0.99244 
H     -1.40377  0.31181  0.93200 
H     -1.86244 -0.02794  0.87933 
H     -1.98900 -0.16004  0.62709 
H     -2.31543 -0.09724  0.69499 
H     -1.96647 -0.45860  0.47293 
H     -1.98723 -0.74217  0.34373 
H     -1.78167 -0.75163  0.27154 
H     -2.19289 -1.00596  0.33179 
H     -2.42203 -0.97078  0.20882 
H     -1.93523 -1.15377  0.23022 
H     -2.15360 -1.38383  0.10558 
H     -1.65420 -1.29826  0.26392 
H     -1.56322 -1.18434  0.58540 
H     -1.37917 -1.37695  0.11554 
H     -1.31547 -1.16187  0.10618 
H     -1.21013 -1.57096 -0.06847 
H     -1.47200 -1.79828 -0.13347 
H     -0.93901 -1.69490 -0.16374 
H     -0.81454 -1.84318  0.11745 
H     -0.68467 -1.45840 -0.27677 
H     -0.92674 -1.22973 -0.32090 
H     -0.52150 -1.22170 -0.50934 
H     -0.30815 -1.45417 -0.73801 
H     -0.27656 -0.97044 -0.57285 
H     -0.50648 -0.75368 -0.43181 
H     -0.14535 -0.80289 -0.85410 
H     -0.06533 -0.96625 -1.03220 
H      0.16939 -0.62682 -0.86527 
H      0.12362 -0.57001 -0.63156 
H      0.27905 -0.30571 -1.01553 
H      0.17417 -0.56868 -1.26559 
H      0.57114 -0.08667 -1.02639 
H      0.45787 -0.07643 -0.77476 
H      0.66642  0.27047 -1.08743 
H      0.68952  0.21689 -1.34274 
H      0.95543  0.45984 -1.04670 
H      0.93537  0.33961 -0.72675 
H      1.00604  0.82193 -1.02256 
H      0.87877  0.83388 -1.23485 
H      1.09566  1.15605 -1.13840 
H      1.33398  1.05523 -0.78442 
H      1.08248  1.50447 -1.09189 
H      0.82515  1.66976 -1.10197 
H      1.26373  1.73967 -1.26100 
H      1.16350  1.61893 -1.45030 
H      1.09478  1.99391 -1.09635 
H      1.03734  2.06769 -1.40440 
H      1.18445  1.85561 -0.81055 
H      0.90588  1.85224 -0.62040 
H      1.35601  1.94443 -0.50920 
H      1.39741  2.14306 -0.55087 
H      1.21803  1.75878 -0.34204 
H      0.81302  2.01961 -0.25103 
H      1.15756  1.49225 -0.17437 
H      1.37867  1.28582 -0.04254 
H      1.05409  1.21818 -0.39724 
H      1.04631  1.41066 -0.65080 
H      0.76434  1.03124 -0.56033 
H      0.78694  0.67091 -0.42033 
H      0.68555  0.86256 -0.84983 
H      0.65259  1.06717 -1.02119 
H      0.37586  0.67401 -0.91512 
H      0.40030  0.44579 -0.68554 
H      0.30029  0.35833 -1.07601 
H      0.22604  0.39921 -1.38395 
H      0.00261  0.14615 -1.07024 
H      0.06929  0.02572 -0.67958 
H     -0.07947 -0.21735 -1.09799 
H     -0.09492 -0.03255 -1.48790 
H     -0.39533 -0.38652 -1.01236 
H     -0.30420 -0.35935 -0.76435 
H     -0.49713 -0.72710 -0.95803 
H     -0.47082 -0.75024 -1.21053 
H     -0.72132 -0.99609 -0.94547 
H     -0.83582 -0.93329 -0.76581 
H     -0.69546 -1.34338 -0.82533 
H     -0.57959 -1.35029 -1.02689 
H     -0.76447 -1.71840 -0.77335 
H     -1.04248 -1.73386 -0.92341 
H     -1.20522 -1.67793 -0.66104 
H     -1.24755 -1.91752 -1.11508 
H     -1.11027 -2.12643 -1.15501 
H     -1.43832 -1.92761 -1.37994 
H     -1.63140 -1.68821 -1.58751 
H     -1.72743 -2.09287 -1.44870 
