439 
balls rotated 
H      0.38952 -1.98820 -0.85044 
H      0.28548 -1.77904 -0.92117 
H      0.63262 -1.80510 -0.73758 
H      1.05380 -1.79103 -0.76429 
H      0.56018 -1.80530 -0.38544 
H      0.25697 -1.89564 -0.35311 
H     -0.01139 -1.91683 -0.63129 
H      0.28812 -2.12004 -0.12732 
H      0.35631 -2.31572 -0.42880 
H      0.32918 -1.89951  0.10859 
H      0.65948 -1.86827  0.07249 
H     -0.00380 -1.80251  0.07446 
H      0.21820 -1.46744  0.00312 
H     -0.15357 -2.01370  0.19874 
H     -0.07473 -2.22599  0.09187 
H     -0.40754 -1.91125  0.33403 
H     -0.34359 -1.76153  0.64184 
H     -0.57560 -1.66336  0.72520 
H     -0.15316 -1.45519  0.69365 
H      0.04045 -1.53477  0.53079 
H      0.03541 -1.28190  0.88775 
H      0.02481 -1.46942  1.03678 
H      0.04257 -0.92254  0.97652 
H     -0.05494 -0.87385  0.68327 
H      0.29965 -0.66108  0.97650 
H      0.43857 -0.66617  1.26348 
H      0.30679 -0.30391  1.05713 
H      0.18490 -0.25976  0.82226 
H      0.56331 -0.04165  1.01489 
H      0.70159 -0.22570  1.36756 
H      0.56919  0.31868  1.08700 
H      0.42684  0.46840  0.85066 
H      0.77443  0.59634  1.00949 
H      0.94244  0.45960  1.27880 
H      0.73001  0.95645  1.05047 
H      0.75993  1.28597  0.86594 
H      0.96970  1.44929  1.00988 
H      0.56007  1.58499  0.86805 
H      0.37733  1.46616  0.72108 
H      0.66721  1.88709  0.87439 
H      0.50111  2.00496  0.62527 
H      0.80761  1.77387  1.16276 
H      0.60173  1.54417  1.22312 
H      0.35711  1.85187  1.22230 
H      0.62415  1.29011  1.44174 
H      1.09114  1.31448  1.49427 
H      0.54984  0.93288  1.37255 
H      0.32878  1.00801  1.12583 
H      0.36310  0.62210  1.45054 
H      0.63146  0.57238  1.52057 
H      0.27827  0.29275  1.30664 
H      0.07281  0.40696  1.17702 
H      0.06889  0.00489  1.39114 
H      0.30280 -0.34606  1.64799 
H      0.00684 -0.32116  1.24032 
H     -0.25484 -0.58213  1.23411 
H     -0.04390 -0.66160  1.59148 
H     -0.31438 -0.91187  1.07160 
H     -0.45334 -1.05820  0.76185 
H     -0.64529 -1.32444  0.96818 
H     -0.40316 -1.28423  0.47311 
H     -0.58606 -1.38164  0.15399 
H     -0.78521 -1.58976  0.19200 
H     -0.46277 -1.43730 -0.15025 
H     -0.25391 -1.43811 -0.12336 
H     -0.66656 -1.62701 -0.29002 
H     -0.61705 -1.87298 -0.21769 
H     -0.89185 -1.37907 -0.22517 
H     -1.06699 -1.62407 -0.11092 
H     -0.76773 -1.08624 -0.19330 
H     -0.75821 -1.05412  0.13582 
H     -1.13458 -1.11848  0.34528 
H     -0.76745 -0.78676  0.39126 
H     -0.44910 -0.74417  0.25025 
H     -0.69083 -0.74544  0.75382 
H     -0.89069 -0.88698  0.78138 
H     -0.66067 -0.43654  0.95068 
H     -0.34923 -0.51262  0.79556 
H     -0.49670 -0.27120  1.23389 
H     -0.73088 -0.22299  1.60064 
H     -0.43728  0.06898  1.32043 
H     -0.28898 -0.02511  0.93155 
H     -0.19495  0.25901  1.51968 
H     -0.25677  0.09885  1.74686 
H     -0.10454  0.53845  1.69831 
H     -0.04114  0.79408  1.58434 
H      0.19576  0.54457  1.90456 
H      0.28998  0.34638  1.80743 
H      0.21857  0.89340  1.93614 
H      0.38783  0.87388  1.76458 
H     -0.09524  0.95679  1.90752 
H     -0.16594  1.19237  1.69548 
H     -0.31948  1.32547  1.76406 
H     -0.23378  1.21505  1.37381 
H     -0.19959  0.94856  1.17454 
H     -0.10120  1.46117  1.14248 
H      0.09559  1.36716  1.23317 
H     -0.27008  1.29103  0.93777 
H     -0.06096  1.29658  0.77966 
H     -0.47147  1.14168  0.73243 
H     -0.54717  1.35675  0.66116 
H     -0.53886  0.81542  0.70579 
H     -0.50664  0.64092  1.11308 
H     -0.58696  0.79123  0.39155 
H     -0.81060  0.88433  0.48824 
H     -0.28323  0.88596  0.31376 
H     -0.28850  1.11865  0.39289 
H     -0.16626  0.57958  0.42708 
H     -0.03899  0.74607  0.67830 
H     -0.28029  0.32829  0.28196 
H     -0.54054  0.34109  0.27015 
H     -0.06680  0.26892  0.04745 
H     -0.14223  0.44208 -0.12257 
H      0.17651  0.23219  0.24570 
H      0.28169  0.47419  0.26965 
H      0.06756  0.00687  0.43967 
H     -0.03369  0.20849  0.69479 
H     -0.23054 -0.13823  0.28261 
H     -0.02050 -0.09945 -0.04338 
H      0.25728 -0.28014  0.09549 
H     -0.42743  0.09669 -0.30768 
H      0.06906 -0.58369  0.02927 
H      0.09352 -0.60382  0.26855 
H      0.06661 -0.69269 -0.28903 
H      0.11006 -0.32155 -0.45206 
H      0.10893 -1.00754 -0.22601 
H      0.29694 -0.96995 -0.03103 
H     -0.22629 -1.03343 -0.17943 
H     -0.09908 -1.08160  0.20845 
H     -0.29943 -1.07533 -0.45746 
H     -0.23607 -0.81941 -0.54538 
H     -0.53071 -1.18384 -0.70746 
H     -0.95079 -1.46783 -0.69919 
H     -0.43119 -1.40225 -0.94210 
H     -0.06475 -1.08507 -0.99267 
H     -0.49220 -1.53248 -1.21918 
H     -0.61879 -1.33156 -1.27634 
H     -0.41896 -1.82793 -1.35814 
H     -0.67871 -1.94970 -1.43853 
H     -0.30410 -1.67065 -1.63785 
H     -0.56532 -1.51950 -1.74901 
H     -0.10313 -1.46233 -1.43079 
H     -0.32054 -1.15209 -1.51410 
H      0.09412 -1.57488 -1.21253 
H     -0.19048 -1.77947 -1.00586 
H      0.39156 -1.50610 -1.33130 
H      0.51317 -1.48965 -1.73346 
H      0.32420 -1.17863 -1.29026 
H      0.23643 -1.21630 -1.67090 
H      0.39527 -1.21627 -0.97765 
H      0.19994 -1.24516 -0.76202 
H      0.63581 -1.04612 -0.82140 
H      0.88139 -0.80055 -0.82952 
H      0.57492 -1.03534 -0.51690 
H      0.34876 -0.69093 -0.62481 
H      0.58895 -1.34985 -0.46438 
H      0.15099 -1.39903 -0.43128 
H      0.85946 -1.40914 -0.62290 
H      0.75122 -1.42283 -0.86794 
H      1.03242 -1.25020 -0.38019 
H      1.02624 -1.06509 -0.45493 
H      0.98187 -1.48187 -0.19902 
H      0.75830 -1.22216 -0.01624 
H      1.09406 -1.44141  0.12750 
H      1.12061 -1.67644  0.12761 
H      1.30228 -1.20354  0.10720 
H      1.61407 -1.39858 -0.09856 
H      1.17578 -0.98594 -0.08185 
H      1.10470 -0.62256 -0.10130 
H      0.73850 -0.65995 -0.23895 
H      1.14214 -0.30806 -0.23621 
H      1.37166 -0.21324 -0.13533 
H      0.94045 -0.01098 -0.16165 
H      0.56326 -0.11450 -0.22750 
H      0.90187  0.28143 -0.36216 
H      1.31713  0.28684 -0.33766 
H      0.78556  0.63157 -0.31111 
H      0.34773  0.31275 -0.32468 
H      0.60516  0.89529 -0.47364 
H      0.82371  1.04475 -0.52580 
H      0.37767  1.13297 -0.33571 
H      0.21800  0.90047 -0.21552 
H      0.16317  1.36141 -0.51084 
H      0.38918  1.40886 -0.64245 
H     -0.00714  1.62731 -0.39846 
H     -0.08432  1.36406 -0.07126 
H     -0.21739  1.82434 -0.53305 
H     -0.42909  1.86086 -0.91917 
H     -0.12696  2.13502 -0.43943 
H     -0.25506  2.36793 -0.52768 
H      0.09389  1.99364 -0.24947 
H     -0.10778  2.00147  0.03456 
H      0.25622  1.76627 -0.10105 
H      0.51231  1.50929 -0.01849 
H      0.59524  1.52634 -0.27824 
H      0.58536  1.16219 -0.03444 
H      0.21963  1.15782  0.29184 
H      0.84393  0.95567  0.09841 
H      1.21363  0.97685 -0.10201 
H      0.90551  0.60161  0.04171 
H      0.66123  0.58277  0.09367 
H      1.03136  0.31285  0.23667 
H      1.46786  0.13653  0.15739 
H      1.01882 -0.04680  0.19368 
H      0.80997 -0.01569  0.26638 
H      0.99386 -0.37196  0.35445 
H      1.42013 -0.35804  0.36794 
H      0.89672 -0.69068  0.21899 
H      0.65541 -0.60168  0.16482 
H      0.87104 -0.97654  0.43946 
H      1.25271 -0.84679  0.47542 
H      0.96643 -1.25721  0.59771 
H      0.63141 -1.47597  0.42007 
H      0.90798 -1.33952  0.95254 
H      1.04819 -0.96027  1.03866 
H      0.86996 -1.62102  0.93105 
H      0.51110 -1.63827  0.91691 
H      0.53786 -1.94766  1.01476 
H      0.53960 -1.32537  0.87516 
H      0.42377 -1.24862  1.10477 
H      0.42219 -1.04952  0.71032 
H      0.39872 -1.03532  0.41177 
H      0.63313 -0.76495  0.65106 
H      0.71251 -0.78034  0.91049 
H      0.59568 -0.39364  0.68936 
H      0.47539 -0.26657  0.44543 
H      0.86375 -0.16307  0.65669 
H      0.97517 -0.45212  1.06855 
H      0.84908  0.20061  0.71919 
H      0.61350  0.16516  0.54086 
H      0.94350  0.51424  0.56025 
H      1.25536  0.34151  0.67235 
H      0.83100  0.86036  0.60993 
H      0.53492  0.87579  0.51433 
H      0.84264  1.16654  0.41249 
H      1.20785  1.39789  0.51290 
H      0.70464  1.48841  0.46214 
H      0.66504  1.77097  0.22993 
H      0.94426  1.72619  0.16510 
H      0.52442  2.08784  0.16374 
H      0.80675  2.10624  0.02167 
H      0.28161  2.13833  0.33102 
H      0.20705  1.71585  0.27473 
H     -0.00538  2.31815  0.36217 
H     -0.19735  2.41073  0.00537 
H     -0.16882  2.54464  0.52430 
H     -0.10452  2.76452  0.84983 
H     -0.50170  2.46094  0.51173 
H     -0.68370  2.66123  0.56056 
H     -0.50757  2.20422  0.38482 
H     -0.62498  1.88492  0.32594 
H     -0.79336  1.94865  0.04815 
H     -0.41159  1.75364  0.51459 
H     -0.25784  1.64348  0.29791 
H     -0.33183  1.94463  0.76381 
H     -0.00589  1.97823  0.72575 
H     -0.65799  2.01938  0.77961 
H     -0.84428  1.77715  0.77787 
H     -0.59348  1.62571  1.03675 
H     -1.04635  1.73690  0.47981 
H     -0.95371  2.17970  0.46711 
H     -1.06860  1.43172  0.47457 
H     -0.80430  1.42065  0.25529 
H     -1.24056  1.16788  0.42844 
H     -1.60290  1.29408  0.24913 
H     -1.34739  0.85363  0.58307 
H     -1.17273  0.63729  0.89052 
H     -1.24116  0.70823  0.29505 
H     -1.47241  0.85495  0.20136 
H     -1.24547  0.48846 -0.01473 
H     -0.82623  0.46991 -0.00122 
H     -1.14829  0.42530 -0.32347 
H     -1.31694  0.71759 -0.41619 
H     -1.12382  0.28079 -0.62987 
H     -1.30128  0.07756 -0.57026 
H     -0.83711  0.12834 -0.79790 
H     -0.80294  0.48103 -0.59190 
H     -0.55436  0.14232 -1.03170 
H     -0.81611  0.02352 -1.20714 
H     -0.25337 -0.04872 -1.08097 
H     -0.15982 -0.03399 -0.84024 
H      0.01891  0.02252 -1.29012 
H     -0.36655  0.19000 -1.49908 
H      0.22224 -0.23074 -1.43842 
H      0.22658 -0.38804 -1.16688 
H      0.58377 -0.25443 -1.49830 
H      0.58951 -0.09727 -1.69791 
H      0.87910 -0.32044 -1.61686 
H      0.90116 -0.53030 -1.68413 
H      1.23353 -0.31788 -1.46896 
H      1.27688 -0.05315 -1.34168 
H      1.51514 -0.41591 -1.59531 
H      1.48337 -0.43187 -1.80828 
H      1.74513 -0.26206 -1.44676 
H      1.74276 -0.06167 -1.52708 
H      1.61138 -0.36112 -1.14689 
H      1.55621 -0.18607 -1.07671 
H      1.46888 -0.63160 -1.16419 
H      1.59379 -0.87542 -1.17427 
H      1.15932 -0.51851 -1.17965 
H      0.91695 -0.26841 -1.08942 
H      0.70499 -0.46636 -1.05309 
H      0.65409 -0.04622 -1.18857 
H      1.01940  0.23932 -1.31365 
H      0.42531  0.22035 -1.07475 
H      0.32172  0.04898 -0.97865 
H      0.10228  0.37691 -1.16073 
H      0.37360  0.52200 -1.30461 
H     -0.11199  0.62069 -0.98810 
H     -0.10294  0.35980 -0.74375 
H     -0.44012  0.76325 -0.88096 
H     -0.32800  1.07788 -1.20176 
H     -0.55171  0.90869 -0.60150 
H     -0.48810  0.68600 -0.41532 
H     -0.88712  0.95876 -0.46060 
H     -1.05188  0.83485 -0.82030 
H     -0.97368  1.21330 -0.23110 
H     -0.64090  1.05095 -0.06254 
H     -1.22162  1.29016 -0.03763 
H     -1.45765  1.10236 -0.19778 
H     -1.37441  1.59170  0.03099 
H     -1.15937  1.75635 -0.02209 
H     -1.58221  1.76606  0.24510 
H     -1.38458  1.91644  0.54890 
H     -1.67424  1.97170 -0.01207 
H     -1.45554  2.11345 -0.05676 
H     -1.67087  1.75316 -0.27412 
H     -1.40002  1.73072 -0.34924 
H     -1.28069  1.94508 -0.32204 
H     -1.06932  1.63914 -0.49483 
H     -1.17319  1.41657 -0.59900 
H     -0.77501  1.46388 -0.38705 
H     -0.55576  1.67080 -0.23210 
H     -0.48143  1.41893 -0.54372 
H     -0.64742  1.41154 -0.85144 
H     -0.25061  1.12085 -0.57415 
H     -0.25046  1.11984 -0.36955 
H      0.05006  1.07108 -0.70462 
H     -0.04393  1.26027 -0.96824 
H      0.19592  0.75493 -0.80396 
H      0.00021  0.68538 -0.45348 
H      0.53396  0.64005 -0.75804 
H      0.86293  0.66812 -1.02562 
H      0.67454  0.31053 -0.83236 
H      0.43016  0.07368 -0.62507 
H      0.92516  0.08083 -0.67722 
H      1.17678  0.35191 -0.86142 
H      1.04999 -0.25947 -0.73061 
H      0.74523 -0.27298 -0.58404 
H      1.28792 -0.46927 -0.54697 
H      1.47602 -0.31164 -0.66112 
H      1.47087 -0.73446 -0.50488 
H      1.41675 -0.81039 -0.69934 
H      1.65394 -0.88007 -0.24975 
H      1.52605 -0.77938  0.01316 
H      1.66940 -1.13312 -0.41451 
H      1.49910 -1.34267 -0.57001 
H      1.72406 -1.59656 -0.57644 
H      1.32353 -1.34692 -0.85736 
H      1.19230 -1.37805 -1.13905 
H      1.02829 -1.23830 -1.10556 
H      1.25511 -1.51076 -1.43982 
H      1.26433 -1.77269 -1.45303 
H      1.02578 -1.31666 -1.53084 
H      1.00070 -1.52256 -1.80126 
H      0.90252 -1.03573 -1.61376 
H      1.14829 -0.81845 -1.48344 
H      0.63134 -0.86276 -1.63356 
H      0.61445 -0.85219 -1.40993 
H      0.36914 -0.77663 -1.78818 
H      0.41727 -0.99006 -2.06497 
H      0.14116 -0.57228 -1.85306 
H      0.30841 -0.29956 -1.97224 
H     -0.05652 -0.45589 -1.56885 
H      0.04741 -0.72417 -1.39548 
H     -0.31311 -0.47654 -1.30339 
H     -0.63966 -0.36828 -1.48642 
H     -0.46177 -0.34601 -1.00670 
H     -0.20465 -0.50929 -0.84247 
H     -0.75210 -0.40562 -0.81552 
H     -0.96246 -0.39747 -0.95866 
H     -0.89738 -0.17626 -0.57787 
H     -0.66668 -0.10842 -0.53183 
H     -1.04775 -0.21628 -0.24097 
H     -1.24038 -0.38282 -0.51998 
H     -1.17721 -0.01370  0.03399 
H     -0.90284  0.01431  0.02045 
H     -1.23955 -0.02777  0.40314 
H     -1.47752 -0.12620  0.35555 
H     -1.32592  0.20334  0.64845 
H     -1.05151  0.36793  0.52666 
H     -1.29211  0.19311  1.01315 
H     -1.41248 -0.02300  0.99840 
H     -1.40152  0.15098  1.35861 
H     -1.22197  0.54798  1.30951 
H     -1.31858  0.10035  1.69667 
H     -1.18428 -0.15244  1.80487 
H     -1.52921  0.12701  1.96442 
H     -1.65669 -0.03080  1.82549 
H     -1.27756  0.02044  2.17798 
H     -1.50859 -0.19550  2.23823 
H     -1.08827  0.26419  2.06133 
H     -0.78772  0.12386  2.00011 
H     -0.90195  0.54419  2.18385 
H     -0.93763  0.52268  2.38675 
H     -0.70900  0.54429  1.97357 
H     -0.40501  0.19974  2.14450 
H     -0.56193  0.62485  1.70027 
H     -0.57735  0.91523  1.54431 
H     -0.73285  0.47512  1.41070 
H     -0.92863  0.30711  1.59737 
H     -0.75184  0.18177  1.16762 
H     -0.67910  0.33576  0.81985 
H     -0.98157  0.00065  0.98626 
H     -1.09258 -0.14978  1.17957 
H     -0.90628 -0.26041  0.73746 
H     -0.74312 -0.08385  0.51930 
H     -1.04148 -0.34805  0.41299 
H     -1.26761 -0.57226  0.43755 
H     -0.91297 -0.55915  0.14356 
H     -0.61977 -0.28568  0.03960 
H     -0.93466 -0.57713 -0.22906 
H     -1.24558 -0.81842 -0.05148 
H     -0.72362 -0.77146 -0.46019 
H     -0.55057 -0.57515 -0.41469 
H     -0.66220 -0.76923 -0.81450 
H     -0.89616 -0.86901 -0.83165 
H     -0.56966 -0.90446 -1.12422 
H     -0.35154 -0.92294 -1.08660 
H     -0.51436 -0.75998 -1.45855 
H     -0.74630 -0.76134 -1.44121 
H     -0.47459 -0.72496 -1.83973 
H     -0.47020 -1.03270 -1.91263 
H     -0.15758 -1.04947 -1.89176 
H     -0.55501 -1.26920 -2.13489 
H     -0.67845 -1.13527 -2.31070 
H     -0.69216 -1.56141 -2.18440 
H     -0.75262 -1.87184 -1.99035 
H     -0.62752 -1.81096 -2.40614 
